19
mol_b_t1_opt.log	Energy: -526771.6929903
O          9.43787       -3.96026        0.71867
C          8.51944       -3.01791        0.53468
N          7.54301       -3.26738       -0.31309
C          6.61640       -2.31431       -0.49756
N          5.60079       -2.44291       -1.31083
C          4.73466       -1.43421       -1.42153
N          4.80554       -0.26338       -0.75834
C          5.80049       -0.08946        0.06307
N          5.95911        1.03756        0.76761
C          7.00454        1.11217        1.57435
N          7.95266        0.18966        1.79030
C          7.81544       -0.94072        1.09980
N          8.72295       -1.90234        1.26599
N          6.77214       -1.10504        0.24648
O          7.15771        2.22986        2.26935
O          3.68932       -1.56660       -2.25867
H          9.20700       -4.71211        0.15673
H          6.42821        2.82319        2.04310
H          3.75232       -2.43784       -2.66720
