29
mol_g_t1_opt.log	Energy: -371708.9897368
C          5.10842       -6.12357       -4.66929
N          5.34308       -6.68491       -3.35508
C          5.29295       -5.83713       -2.27960
N          5.43209       -4.50176       -2.43285
C          5.40257       -3.90110       -1.22267
C          5.24229       -4.86322       -0.19128
C          5.15599       -6.17073       -0.90657
C          4.98532       -7.16948        0.04236
C          4.97085       -6.51391        1.30071
C          5.12781       -5.10956        1.16997
N          5.47124       -2.53759       -1.10450
C          6.00799       -1.78908       -2.22210
C          5.74029       -2.00454        0.21115
C          4.88443       -8.03907       -3.14685
H          5.67124       -5.20078       -4.77573
H          4.04647       -5.90106       -4.83657
H          5.44104       -6.83843       -5.42104
H          4.87597       -8.23054       -0.10381
H          4.85420       -7.02433        2.24780
H          5.15421       -4.41108        1.98887
H          5.57122       -2.15437       -3.14699
H          7.09915       -1.88580       -2.29427
H          5.75528       -0.73718       -2.09407
H          6.76409       -2.21510        0.54796
H          5.04235       -2.42819        0.93098
H          5.59455       -0.92552        0.19233
H          5.14169       -8.63784       -4.01931
H          3.79896       -8.09495       -2.98998
H          5.38447       -8.46954       -2.28120
