20
mol_c_t1_opt.log	Energy: -412773.4466502
N          1.23024        2.26763       -0.03135
C         -0.06764        2.60475       -0.03083
N         -1.09607        1.75440       -0.02102
C         -0.82530        0.46984       -0.01085
C         -1.81095       -0.52522        0.00007
C         -1.43821       -1.87686        0.01053
N         -0.16209       -2.27064        0.01056
C          0.79813       -1.36642        0.00049
C          2.14194       -1.74757        0.00021
C          3.16798       -0.80670       -0.01038
C          2.86091        0.54535       -0.02104
C          1.53207        0.98658       -0.02128
N          0.51045        0.01495       -0.01034
C         -3.18654       -0.15167        0.00036
N         -4.30882        0.08923        0.00113
H          3.61835        1.31552       -0.02961
H         -2.19609       -2.64760        0.01904
H          2.33307       -2.81088        0.00871
H          4.19855       -1.13029       -0.01034
H         -0.30107        3.66013       -0.03917
