26
mol_e_s1_opt.log	Energy: -386293.4003545
C         -1.00467        0.82115        1.20184
C         -1.02099        1.85411        2.19889
C          0.03365        2.64166        2.51884
C          1.40394        2.70270        2.01216
C          2.05530        1.99113        1.06125
C          1.47616        0.93174        0.28436
C         -1.99992       -0.08919        0.73965
C          0.14436        0.53677        0.45509
C          1.99992        0.08919       -0.73965
C         -1.47616       -0.93174       -0.28437
C         -0.14436       -0.53677       -0.45509
C          1.00467       -0.82115       -1.20184
C         -2.05530       -1.99113       -1.06125
C          1.02099       -1.85411       -2.19889
C         -1.40394       -2.70270       -2.01216
C         -0.03365       -2.64166       -2.51884
H          3.01389        0.13432       -1.11457
H          1.94653       -2.01968       -2.73960
H          0.15713       -3.37150       -3.29748
H         -1.99678       -3.46748       -2.50101
H          1.99679        3.46748        2.50101
H         -3.01389       -0.13432        1.11457
H          3.09354        2.24417        0.87567
H         -3.09355       -2.24417       -0.87567
H         -1.94653        2.01968        2.73960
H         -0.15713        3.37150        3.29748
