20
mol_c_s1_opt.log	Energy: -412773.1855654
N          1.23139        2.26684       -0.03134
C         -0.06971        2.60767       -0.03080
N         -1.09437        1.75632       -0.02104
C         -0.82492        0.47027       -0.01082
C         -1.81132       -0.52459        0.00006
C         -1.43844       -1.87546        0.01056
N         -0.16379       -2.26967        0.01059
C          0.79867       -1.36727        0.00057
C          2.14128       -1.75015        0.00026
C          3.16387       -0.80550       -0.01041
C          2.86326        0.54558       -0.02109
C          1.53259        0.99023       -0.02128
N          0.51411        0.01391       -0.01017
C         -3.18789       -0.15474        0.00030
N         -4.31060        0.08396        0.00103
H          3.62411        1.31217       -0.02971
H         -2.19723       -2.64579        0.01905
H          2.33583       -2.81254        0.00870
H          4.19488       -1.12957       -0.01041
H         -0.30284        3.66287       -0.03913
