29
mol_g_s1_opt.log	Energy: -371708.3176504
C         -2.51486        2.31481        0.15322
N         -2.34135        0.93103       -0.23837
C         -1.09794        0.37387       -0.06557
N          0.00973        1.14349        0.02960
C          1.10888        0.36197        0.12644
C          0.74054       -1.01115        0.09176
C         -0.74468       -1.00314       -0.02803
C         -1.17821       -2.31875       -0.05805
C         -0.01364       -3.12351        0.03388
C          1.15966       -2.33136        0.12430
N          2.35836        0.90577        0.29805
C          2.54725        2.28654       -0.09703
C          3.48377        0.02583        0.08094
C         -3.47639        0.06417       -0.01879
H         -1.69271        2.90904       -0.23508
H         -2.54035        2.43248        1.24475
H         -3.45228        2.68215       -0.26262
H         -2.18578       -2.69248       -0.13004
H         -0.01954       -4.20495        0.03489
H          2.16310       -2.71593        0.19694
H          1.73153        2.89076        0.28941
H          2.57446        2.40109       -1.18885
H          3.48850        2.64463        0.31824
H          3.59346       -0.26319       -0.97324
H          3.36816       -0.87609        0.67936
H          4.39423        0.53041        0.40074
H         -4.38131        0.57814       -0.33937
H         -3.58884       -0.22119        1.03609
H         -3.37113       -0.84037       -0.61518
