16
mol_a_s1_opt.log	Energy: -385096.5561672
N         -0.00296        0.00032        0.25445
N          2.26911       -0.58776       -0.01790
N          0.58158       -2.27259       -0.01854
N         -1.64190       -1.67500       -0.04459
N         -2.25712        0.62877       -0.07128
N         -0.62768        2.25560       -0.07067
N          1.67508        1.63668       -0.04334
C          1.35167        0.35967        0.04722
C          1.85128       -1.85680        0.02491
C         -0.36441       -1.35366        0.04657
C         -2.53272       -0.67851       -0.02658
C         -0.99006        0.98908        0.01953
C          0.68002        2.52910       -0.02538
H          2.61546       -2.62222        0.02577
H          0.96091        3.57341       -0.04520
H         -3.57747       -0.95772       -0.04691
