19
mol_b_s1_opt.log	Energy: -526766.6726924
O          9.43859       -3.96619        0.68956
C          8.51398       -3.01768        0.54258
N          7.48192       -3.27372       -0.26286
C          6.64253       -2.28557       -0.50682
N          5.56837       -2.46872       -1.24849
C          4.74296       -1.43115       -1.40158
N          4.76818       -0.29926       -0.69917
C          5.83059       -0.08250        0.04669
N          5.91808        0.98897        0.81298
C          7.00094        1.11115        1.58235
N          7.89355        0.15622        1.83890
C          7.84635       -0.92783        1.09029
N          8.66063       -1.93917        1.31145
N          6.93139       -0.98654       -0.00517
O          7.16051        2.25135        2.25290
O          3.72628       -1.56531       -2.25335
H          9.18799       -4.71355        0.13139
H          6.42125        2.83195        2.03012
H          3.78547       -2.44450       -2.64886
